Version 4
SHEET 1 4384 2224
WIRE 256 320 208 320
WIRE 400 336 336 336
WIRE 480 336 480 240
WIRE 480 336 400 336
WIRE 544 336 480 336
WIRE 256 352 176 352
WIRE 480 352 480 336
WIRE 176 416 176 352
WIRE 256 480 208 480
WIRE 400 496 400 336
WIRE 400 496 336 496
WIRE 256 512 176 512
WIRE 816 528 768 528
WIRE 960 544 896 544
WIRE 1040 544 1040 448
WIRE 1040 544 960 544
WIRE 1104 544 1040 544
WIRE 816 560 736 560
WIRE 1040 560 1040 544
WIRE 176 576 176 512
WIRE 256 624 208 624
WIRE 736 624 736 560
WIRE 400 640 400 496
WIRE 400 640 336 640
WIRE 256 656 176 656
WIRE 816 688 768 688
WIRE 960 704 960 544
WIRE 960 704 896 704
WIRE 176 720 176 656
WIRE 816 720 736 720
WIRE 736 784 736 720
WIRE 256 832 208 832
WIRE 816 832 768 832
WIRE 400 848 336 848
WIRE 480 848 480 752
WIRE 480 848 400 848
WIRE 544 848 480 848
WIRE 960 848 960 704
WIRE 960 848 896 848
WIRE 256 864 176 864
WIRE 480 864 480 848
WIRE 816 864 736 864
WIRE 176 928 176 864
WIRE 736 928 736 864
WIRE 256 992 208 992
WIRE 400 1008 400 848
WIRE 400 1008 336 1008
WIRE 256 1024 176 1024
WIRE 176 1088 176 1024
WIRE 256 1136 208 1136
WIRE 400 1152 400 1008
WIRE 400 1152 336 1152
WIRE 256 1168 176 1168
WIRE 176 1232 176 1168
FLAG -80 128 10v
FLAG -80 208 0
FLAG -368 128 1v
FLAG -368 208 0
FLAG -224 128 0
FLAG -224 208 -10v
FLAG 176 416 0
FLAG 208 320 x1
FLAG 176 576 0
FLAG 208 480 x2
FLAG 176 720 0
FLAG 208 624 x3
FLAG 480 416 0
FLAG 544 336 x1
FLAG 176 928 0
FLAG 208 832 x1
FLAG 176 1088 0
FLAG 208 992 x2
FLAG 176 1232 0
FLAG 208 1136 x3
FLAG 480 928 0
FLAG 544 848 x2
FLAG 736 624 0
FLAG 768 528 x1
FLAG 736 784 0
FLAG 768 688 x2
FLAG 736 928 0
FLAG 768 832 x3
FLAG 1040 624 0
FLAG 1104 544 x3
FLAG 400 256 1v
FLAG 400 736 1v
FLAG 960 464 1v
FLAG 400 224 0
FLAG 400 768 0
FLAG 960 432 0
FLAG 256 368 0
FLAG 256 528 0
FLAG 256 672 0
FLAG 400 272 0
FLAG 400 784 0
FLAG 256 880 0
FLAG 256 1040 0
FLAG 256 1184 0
FLAG 816 880 0
FLAG 816 736 0
FLAG 816 576 0
FLAG 960 480 0
SYMBOL voltage -80 112 R0
WINDOW 123 0 0 Left 0
SYMATTR InstName V1
SYMATTR Value 10
SYMATTR SpiceLine Rser=.8
SYMBOL voltage -368 112 R0
WINDOW 123 0 0 Left 0
SYMATTR InstName V2
SYMATTR Value PULSE(0 1 .1 1 0 800 800 1)
SYMATTR SpiceLine Rser=.8
SYMBOL voltage -224 112 R0
WINDOW 123 0 0 Left 0
SYMATTR InstName V3
SYMATTR Value 10
SYMATTR SpiceLine Rser=.8
SYMBOL SpecialFunctions\\ota 288 272 R0
WINDOW 3 0 60 Invisible 2
SYMATTR Value Iout=100 G=1.2 Vhigh=10 Vlow=-10
SYMATTR InstName A2
SYMBOL cap 496 416 R180
WINDOW 0 24 56 Left 2
WINDOW 3 24 8 Left 2
SYMATTR InstName C2
SYMATTR Value 1µ
SYMBOL SpecialFunctions\\ota 288 432 R0
WINDOW 3 0 60 Invisible 2
SYMATTR Value Iout=100 G=2.4 Vhigh=10 Vlow=-10
SYMATTR InstName A1
SYMBOL SpecialFunctions\\ota 288 576 R0
WINDOW 3 0 60 Invisible 2
SYMATTR Value Iout=100 G=1.5 Vhigh=10 Vlow=-10
SYMATTR InstName A3
SYMBOL SpecialFunctions\\ota 288 784 R0
WINDOW 3 0 60 Invisible 2
SYMATTR Value Iout=100 G=.4 Vhigh=10 Vlow=-10
SYMATTR InstName A4
SYMBOL cap 496 928 R180
WINDOW 0 24 56 Left 2
WINDOW 3 24 8 Left 2
SYMATTR InstName C1
SYMATTR Value 1µ
SYMBOL SpecialFunctions\\ota 288 944 R0
WINDOW 3 0 60 Invisible 2
SYMATTR Value Iout=100 G=1 Vhigh=10 Vlow=-10
SYMATTR InstName A5
SYMBOL SpecialFunctions\\ota 288 1088 R0
WINDOW 3 0 60 Invisible 2
SYMATTR Value Iout=100 G=.1 Vhigh=10 Vlow=-10
SYMATTR InstName A6
SYMBOL SpecialFunctions\\ota 848 480 R0
WINDOW 3 0 60 Invisible 2
SYMATTR Value Iout=100 G=2.2 Vhigh=10 Vlow=-10
SYMATTR InstName A7
SYMBOL cap 1056 624 R180
WINDOW 0 24 56 Left 2
WINDOW 3 24 8 Left 2
SYMATTR InstName C3
SYMATTR Value 1µ
SYMBOL SpecialFunctions\\ota 848 640 R0
WINDOW 3 0 60 Invisible 2
SYMATTR Value Iout=100 G=0.5 Vhigh=10 Vlow=-10
SYMATTR InstName A8
SYMBOL SpecialFunctions\\ota 848 784 R0
WINDOW 3 0 60 Invisible 2
SYMATTR Value Iout=100 G=1.2 Vhigh=10 Vlow=-10
SYMATTR InstName A9
SYMBOL SpecialFunctions\\ota 432 176 R0
WINDOW 3 0 60 Invisible 2
SYMATTR Value Iout=100 G=3 Vhigh=10 Vlow=-10
SYMATTR InstName A10
SYMBOL SpecialFunctions\\ota 432 688 R0
WINDOW 3 0 60 Invisible 2
SYMATTR Value Iout=100 G=2 Vhigh=10 Vlow=-10
SYMATTR InstName A11
SYMBOL SpecialFunctions\\ota 992 384 R0
WINDOW 3 0 60 Invisible 2
SYMATTR Value Iout=100 G=1 Vhigh=10 Vlow=-10
SYMATTR InstName A12
TEXT 392 64 Left 2 !.tran 10s
