Version 4
SHEET 1 4384 2224
WIRE 256 320 208 320
WIRE 832 320 784 320
WIRE 1424 320 1376 320
WIRE 400 336 336 336
WIRE 480 336 480 240
WIRE 480 336 400 336
WIRE 544 336 480 336
WIRE 560 336 544 336
WIRE 976 336 912 336
WIRE 1056 336 1056 240
WIRE 1056 336 976 336
WIRE 1120 336 1056 336
WIRE 1136 336 1120 336
WIRE 1568 336 1504 336
WIRE 1648 336 1648 240
WIRE 1648 336 1568 336
WIRE 1712 336 1648 336
WIRE 1728 336 1712 336
WIRE 256 352 176 352
WIRE 832 352 752 352
WIRE 1424 352 1344 352
WIRE 176 416 176 352
WIRE 752 416 752 352
WIRE 1344 416 1344 352
WIRE 544 448 544 336
WIRE 1120 448 1120 336
WIRE 1712 448 1712 336
WIRE 256 480 208 480
WIRE 832 480 784 480
WIRE 1424 480 1376 480
WIRE 400 496 400 336
WIRE 400 496 336 496
WIRE 976 496 976 336
WIRE 976 496 912 496
WIRE 1568 496 1568 336
WIRE 1568 496 1504 496
WIRE 256 512 176 512
WIRE 832 512 752 512
WIRE 1424 512 1344 512
WIRE 176 576 176 512
WIRE 752 576 752 512
WIRE 1344 576 1344 512
WIRE 256 624 208 624
WIRE 832 624 784 624
WIRE 1424 624 1376 624
WIRE 400 640 400 496
WIRE 400 640 336 640
WIRE 976 640 976 496
WIRE 976 640 912 640
WIRE 1568 640 1568 496
WIRE 1568 640 1504 640
WIRE 256 656 176 656
WIRE 832 656 752 656
WIRE 1424 656 1344 656
WIRE 176 720 176 656
WIRE 752 720 752 656
WIRE 1344 720 1344 656
FLAG -80 128 10v
FLAG -80 208 0
FLAG -368 128 1v
FLAG -368 208 0
FLAG -224 128 0
FLAG -224 208 -10v
FLAG 176 416 0
FLAG 208 320 x1
FLAG 176 576 0
FLAG 208 480 x2
FLAG 176 720 0
FLAG 208 624 x3
FLAG 624 336 0
FLAG 544 448 x1
FLAG 752 416 0
FLAG 784 320 x1
FLAG 752 576 0
FLAG 784 480 x2
FLAG 752 720 0
FLAG 784 624 x3
FLAG 1200 336 0
FLAG 1120 448 x2
FLAG 1344 416 0
FLAG 1376 320 x1
FLAG 1344 576 0
FLAG 1376 480 x2
FLAG 1344 720 0
FLAG 1376 624 x3
FLAG 1792 336 0
FLAG 1712 448 x3
FLAG 400 256 1v
FLAG 976 224 1v
FLAG 1568 256 1v
FLAG 400 224 0
FLAG 976 256 0
FLAG 1568 224 0
FLAG 256 368 0
FLAG 256 528 0
FLAG 256 672 0
FLAG 400 272 0
FLAG 976 272 0
FLAG 832 368 0
FLAG 832 528 0
FLAG 832 672 0
FLAG 1424 672 0
FLAG 1424 528 0
FLAG 1424 368 0
FLAG 1568 272 0
SYMBOL voltage -80 112 R0
WINDOW 123 0 0 Left 0
SYMATTR InstName V1
SYMATTR Value 10
SYMATTR SpiceLine Rser=.8
SYMBOL voltage -368 112 R0
WINDOW 123 0 0 Left 0
SYMATTR InstName V2
SYMATTR Value PULSE(0 1 .1 1 0 800 800 1)
SYMATTR SpiceLine Rser=.8
SYMBOL voltage -224 112 R0
WINDOW 123 0 0 Left 0
SYMATTR InstName V3
SYMATTR Value 10
SYMATTR SpiceLine Rser=.8
SYMBOL SpecialFunctions\\ota 288 272 R0
WINDOW 3 0 60 Invisible 2
SYMATTR Value Iout=100 G=1.2 Vhigh=10 Vlow=-10
SYMATTR InstName A2
SYMBOL cap 624 320 R90
WINDOW 0 0 32 VBottom 2
WINDOW 3 32 32 VTop 2
SYMATTR InstName C2
SYMATTR Value 1µ
SYMBOL SpecialFunctions\\ota 288 432 R0
WINDOW 3 0 60 Invisible 2
SYMATTR Value Iout=100 G=2.4 Vhigh=10 Vlow=-10
SYMATTR InstName A1
SYMBOL SpecialFunctions\\ota 288 576 R0
WINDOW 3 0 60 Invisible 2
SYMATTR Value Iout=100 G=1.5 Vhigh=10 Vlow=-10
SYMATTR InstName A3
SYMBOL SpecialFunctions\\ota 864 272 R0
WINDOW 3 0 60 Invisible 2
SYMATTR Value Iout=100 G=.4 Vhigh=10 Vlow=-10
SYMATTR InstName A4
SYMBOL cap 1200 320 R90
WINDOW 0 0 32 VBottom 2
WINDOW 3 32 32 VTop 2
SYMATTR InstName C1
SYMATTR Value 1µ
SYMBOL SpecialFunctions\\ota 864 432 R0
WINDOW 3 0 60 Invisible 2
SYMATTR Value Iout=100 G=1 Vhigh=10 Vlow=-10
SYMATTR InstName A5
SYMBOL SpecialFunctions\\ota 864 576 R0
WINDOW 3 0 60 Invisible 2
SYMATTR Value Iout=100 G=.1 Vhigh=10 Vlow=-10
SYMATTR InstName A6
SYMBOL SpecialFunctions\\ota 1456 272 R0
WINDOW 3 0 60 Invisible 2
SYMATTR Value Iout=100 G=2.2 Vhigh=10 Vlow=-10
SYMATTR InstName A7
SYMBOL cap 1792 320 R90
WINDOW 0 0 32 VBottom 2
WINDOW 3 32 32 VTop 2
SYMATTR InstName C3
SYMATTR Value 1µ
SYMBOL SpecialFunctions\\ota 1456 432 R0
WINDOW 3 0 60 Invisible 2
SYMATTR Value Iout=100 G=0.5 Vhigh=10 Vlow=-10
SYMATTR InstName A8
SYMBOL SpecialFunctions\\ota 1456 576 R0
WINDOW 3 0 60 Invisible 2
SYMATTR Value Iout=100 G=1.2 Vhigh=10 Vlow=-10
SYMATTR InstName A9
SYMBOL SpecialFunctions\\ota 432 176 R0
WINDOW 3 0 60 Invisible 2
SYMATTR Value Iout=100 G=3 Vhigh=10 Vlow=-10
SYMATTR InstName A10
SYMBOL SpecialFunctions\\ota 1008 176 R0
WINDOW 3 0 60 Invisible 2
SYMATTR Value Iout=100 G=2 Vhigh=10 Vlow=-10
SYMATTR InstName A11
SYMBOL SpecialFunctions\\ota 1600 176 R0
WINDOW 3 0 60 Invisible 2
SYMATTR Value Iout=100 G=1 Vhigh=10 Vlow=-10
SYMATTR InstName A12
TEXT 392 64 Left 2 !.tran 10s
