Version 4
SHEET 1 4384 2224
WIRE -512 464 -544 464
WIRE -320 464 -432 464
WIRE -544 576 -544 464
WIRE -544 576 -576 576
WIRE -496 576 -544 576
WIRE -320 592 -320 464
WIRE -320 592 -432 592
WIRE -496 608 -512 608
WIRE -544 656 -544 576
WIRE -544 656 -576 656
WIRE -512 672 -512 608
WIRE -320 672 -320 592
WIRE -176 672 -320 672
WIRE -544 752 -544 656
WIRE -544 752 -576 752
WIRE -512 912 -544 912
WIRE -320 912 -432 912
WIRE -544 1024 -544 912
WIRE -544 1024 -576 1024
WIRE -496 1024 -544 1024
WIRE -320 1040 -320 912
WIRE -320 1040 -432 1040
WIRE -496 1056 -512 1056
WIRE -656 1104 -672 1104
WIRE -544 1104 -544 1024
WIRE -544 1104 -576 1104
WIRE -512 1120 -512 1056
WIRE -320 1136 -320 1040
WIRE -176 1136 -320 1136
WIRE -544 1200 -544 1104
WIRE -544 1200 -576 1200
WIRE -528 1376 -560 1376
WIRE -336 1376 -448 1376
WIRE -560 1488 -560 1376
WIRE -560 1488 -592 1488
WIRE -512 1488 -560 1488
WIRE -336 1504 -336 1376
WIRE -336 1504 -448 1504
WIRE -512 1520 -528 1520
WIRE -560 1568 -560 1488
WIRE -560 1568 -592 1568
WIRE -528 1584 -528 1520
WIRE -336 1600 -336 1504
WIRE -176 1600 -336 1600
WIRE -560 1664 -560 1568
WIRE -560 1664 -592 1664
FLAG -928 992 10v
FLAG -928 1072 0
FLAG -1072 992 0
FLAG -1072 1072 -10v
FLAG -464 560 10v
FLAG -512 752 0
FLAG -464 624 -10v
FLAG -656 656 x2
FLAG -656 752 x3
FLAG -176 672 b1
FLAG -464 1008 10v
FLAG -512 1200 0
FLAG -464 1072 -10v
FLAG -672 1104 x2
FLAG -656 1024 x1
FLAG -656 1200 x3
FLAG -176 1136 b2
FLAG -480 1472 10v
FLAG -528 1664 0
FLAG -480 1536 -10v
FLAG -672 1488 x1
FLAG -672 1568 x2
FLAG -672 1664 x3
FLAG -176 1600 b3
FLAG -656 576 x1
FLAG -896 624 x3
FLAG -896 704 0
FLAG -1184 624 x1
FLAG -1184 704 0
FLAG -1040 624 0
FLAG -1040 704 x2
SYMBOL voltage -928 976 R0
WINDOW 123 0 0 Left 0
SYMATTR InstName V1
SYMATTR Value 10
SYMATTR SpiceLine Rser=.8
SYMBOL voltage -1072 976 R0
WINDOW 123 0 0 Left 0
SYMATTR InstName V3
SYMATTR Value 10
SYMATTR SpiceLine Rser=.8
SYMBOL res -560 560 R90
WINDOW 0 0 56 VBottom 2
WINDOW 3 32 56 VTop 2
SYMATTR InstName R1
SYMATTR Value 16666
SYMBOL res -560 640 R90
WINDOW 0 0 56 VBottom 2
WINDOW 3 32 56 VTop 2
SYMATTR InstName R2
SYMATTR Value 10K
SYMBOL res -560 736 R90
WINDOW 0 0 56 VBottom 2
WINDOW 3 32 56 VTop 2
SYMATTR InstName R3
SYMATTR Value 25K
SYMBOL res -416 448 R90
WINDOW 0 0 56 VBottom 2
WINDOW 3 32 56 VTop 2
SYMATTR InstName R4
SYMATTR Value 50K
SYMBOL res -528 656 R0
SYMATTR InstName R5
SYMATTR Value 10K
SYMBOL res -560 1008 R90
WINDOW 0 0 56 VBottom 2
WINDOW 3 32 56 VTop 2
SYMATTR InstName R14
SYMATTR Value 10K
SYMBOL res -560 1184 R90
WINDOW 0 0 56 VBottom 2
WINDOW 3 32 56 VTop 2
SYMATTR InstName R16
SYMATTR Value -16666
SYMBOL res -416 896 R90
WINDOW 0 0 56 VBottom 2
WINDOW 3 32 56 VTop 2
SYMATTR InstName R17
SYMATTR Value 50K
SYMBOL res -528 1104 R0
SYMATTR InstName R18
SYMATTR Value 10K
SYMBOL res -576 1472 R90
WINDOW 0 0 56 VBottom 2
WINDOW 3 32 56 VTop 2
SYMATTR InstName R27
SYMATTR Value 25K
SYMBOL res -576 1552 R90
WINDOW 0 0 56 VBottom 2
WINDOW 3 32 56 VTop 2
SYMATTR InstName R28
SYMATTR Value -16666
SYMBOL res -576 1648 R90
WINDOW 0 0 56 VBottom 2
WINDOW 3 32 56 VTop 2
SYMATTR InstName R29
SYMATTR Value 50K
SYMBOL res -432 1360 R90
WINDOW 0 0 56 VBottom 2
WINDOW 3 32 56 VTop 2
SYMATTR InstName R30
SYMATTR Value 50K
SYMBOL res -544 1568 R0
SYMATTR InstName R31
SYMATTR Value 10K
SYMBOL OpAmps\\LT1013 -464 528 R0
SYMATTR InstName U1
SYMBOL OpAmps\\LT1013 -480 1440 R0
SYMATTR InstName U7
SYMBOL OpAmps\\LT1013 -464 976 R0
SYMATTR InstName U9
SYMBOL voltage -896 608 R0
WINDOW 123 0 0 Left 0
SYMATTR InstName V4
SYMATTR Value .7
SYMATTR SpiceLine Rser=.8
SYMBOL voltage -1184 608 R0
WINDOW 123 0 0 Left 0
SYMATTR InstName V5
SYMATTR Value 1.8
SYMATTR SpiceLine Rser=.8
SYMBOL voltage -1040 608 R0
WINDOW 123 0 0 Left 0
SYMATTR InstName V6
SYMATTR Value .34
SYMATTR SpiceLine Rser=.8
TEXT -1144 1216 Left 2 !.tran 30s
