Version 4
SHEET 1 3584 1604
WIRE -736 144 -736 128
WIRE -736 144 -800 144
WIRE -512 144 -512 128
WIRE -512 144 -576 144
WIRE -304 144 -304 128
WIRE -304 144 -368 144
WIRE -800 160 -800 144
WIRE -576 160 -576 144
WIRE -368 160 -368 144
WIRE -736 176 -736 144
WIRE -512 176 -512 144
WIRE -304 176 -304 144
WIRE 80 464 -160 464
WIRE 624 464 80 464
WIRE 736 464 704 464
WIRE 768 464 736 464
WIRE 928 464 848 464
WIRE 1248 480 1216 480
WIRE 1408 480 1328 480
WIRE -160 496 -160 464
WIRE 128 576 -16 576
WIRE 624 576 128 576
WIRE 736 576 736 464
WIRE 736 576 704 576
WIRE 752 576 736 576
WIRE 928 592 928 464
WIRE 928 592 816 592
WIRE 1104 592 928 592
WIRE 1216 592 1216 480
WIRE 1216 592 1184 592
WIRE 1232 592 1216 592
WIRE 1408 592 1408 480
WIRE 1456 592 1408 592
WIRE 752 608 736 608
WIRE 1408 608 1408 592
WIRE 1408 608 1296 608
WIRE 1232 624 1216 624
WIRE 736 656 736 608
WIRE 256 672 208 672
WIRE 400 672 320 672
WIRE 1216 672 1216 624
WIRE 208 784 208 672
WIRE 240 784 208 784
WIRE 400 784 400 672
WIRE 400 784 320 784
WIRE 704 800 672 800
WIRE 864 800 784 800
WIRE 96 896 -336 896
WIRE 208 896 208 784
WIRE 208 896 176 896
WIRE 224 896 208 896
WIRE 400 912 400 784
WIRE 400 912 288 912
WIRE 560 912 400 912
WIRE 672 912 672 800
WIRE 672 912 640 912
WIRE 688 912 672 912
WIRE 224 928 208 928
WIRE 864 928 864 800
WIRE 864 928 752 928
WIRE 1008 928 864 928
WIRE 688 944 672 944
WIRE 208 976 208 928
WIRE 672 992 672 944
WIRE 240 1200 192 1200
WIRE 384 1200 304 1200
WIRE 192 1312 192 1200
WIRE 224 1312 192 1312
WIRE 384 1312 384 1200
WIRE 384 1312 304 1312
WIRE 704 1328 672 1328
WIRE 864 1328 784 1328
WIRE 80 1424 -352 1424
WIRE 192 1424 192 1312
WIRE 192 1424 160 1424
WIRE 208 1424 192 1424
WIRE 384 1440 384 1312
WIRE 384 1440 272 1440
WIRE 560 1440 384 1440
WIRE 672 1440 672 1328
WIRE 672 1440 640 1440
WIRE 688 1440 672 1440
WIRE 208 1456 192 1456
WIRE 864 1456 864 1328
WIRE 864 1456 752 1456
WIRE 1008 1456 864 1456
WIRE 688 1472 672 1472
WIRE 192 1504 192 1456
WIRE 672 1520 672 1472
FLAG -304 48 10v
FLAG -368 160 0
FLAG -304 256 -10v
FLAG -736 48 1v
FLAG -800 160 0
FLAG -736 256 -1v
FLAG 736 656 0
FLAG 784 560 10v
FLAG 784 624 -10v
FLAG 928 672 0
FLAG 1456 592 out
FLAG 1216 672 0
FLAG 1264 576 10v
FLAG 1264 640 -10v
FLAG 1408 688 0
FLAG 256 880 15v
FLAG 256 944 -15v
FLAG 208 1056 0
FLAG 720 960 -15v
FLAG 672 992 0
FLAG 400 992 0
FLAG -512 48 15v
FLAG -576 160 0
FLAG -512 256 -15v
FLAG 720 896 15v
FLAG 1008 928 alpha
FLAG -336 976 0
FLAG 240 1408 15v
FLAG 240 1472 -15v
FLAG 192 1584 0
FLAG 384 1520 0
FLAG -352 1504 0
FLAG 720 1488 -15v
FLAG 672 1520 0
FLAG 720 1424 15v
FLAG 1008 1456 beta
FLAG -160 576 0
FLAG -16 496 0
FLAG 80 464 cos
FLAG 128 576 sin
SYMBOL voltage -304 160 R0
WINDOW 123 0 0 Left 0
WINDOW 39 24 124 Left 2
SYMATTR SpiceLine Rser=.8
SYMATTR InstName V1
SYMATTR Value 10
SYMBOL voltage -304 32 R0
WINDOW 123 0 0 Left 0
WINDOW 39 24 124 Left 2
SYMATTR SpiceLine Rser=.8
SYMATTR InstName V2
SYMATTR Value 10
SYMBOL voltage -736 160 R0
WINDOW 123 0 0 Left 0
WINDOW 39 24 124 Left 2
SYMATTR SpiceLine Rser=.8
SYMATTR InstName V5
SYMATTR Value 1
SYMBOL voltage -736 32 R0
WINDOW 123 0 0 Left 0
WINDOW 39 24 124 Left 2
SYMATTR SpiceLine Rser=.8
SYMATTR InstName V6
SYMATTR Value 1
SYMBOL res 720 560 R90
WINDOW 0 0 56 VBottom 2
WINDOW 3 32 56 VTop 2
SYMATTR InstName R5
SYMATTR Value -11.5K
SYMBOL OpAmps\\LT1013 784 528 R0
SYMATTR InstName U2
SYMBOL res 912 576 R0
SYMATTR InstName R6
SYMATTR Value 1000K
SYMBOL res 864 448 R90
WINDOW 0 0 56 VBottom 2
WINDOW 3 32 56 VTop 2
SYMATTR InstName R7
SYMATTR Value 10K
SYMBOL res 720 448 R90
WINDOW 0 0 56 VBottom 2
WINDOW 3 32 56 VTop 2
SYMATTR InstName R8
SYMATTR Value 20K
SYMBOL res 1200 576 R90
WINDOW 0 0 56 VBottom 2
WINDOW 3 32 56 VTop 2
SYMATTR InstName R9
SYMATTR Value 10K
SYMBOL OpAmps\\LT1013 1264 544 R0
SYMATTR InstName U5
SYMBOL res 1392 592 R0
SYMATTR InstName R12
SYMATTR Value 1000K
SYMBOL res 1344 464 R90
WINDOW 0 0 56 VBottom 2
WINDOW 3 32 56 VTop 2
SYMATTR InstName R18
SYMATTR Value 10K
SYMBOL res 336 768 R90
WINDOW 0 0 56 VBottom 2
WINDOW 3 32 56 VTop 2
SYMATTR InstName R19
SYMATTR Value 100K
SYMBOL res 192 880 R90
WINDOW 0 0 56 VBottom 2
WINDOW 3 32 56 VTop 2
SYMATTR InstName R21
SYMATTR Value 100K
SYMBOL res 192 960 R0
SYMATTR InstName R22
SYMATTR Value 9990
SYMBOL res 800 784 R90
WINDOW 0 0 56 VBottom 2
WINDOW 3 32 56 VTop 2
SYMATTR InstName R34
SYMATTR Value 10K
SYMBOL res 656 896 R90
WINDOW 0 0 56 VBottom 2
WINDOW 3 32 56 VTop 2
SYMATTR InstName R35
SYMATTR Value 10K
SYMBOL res 384 896 R0
SYMATTR InstName R36
SYMATTR Value 100K
SYMBOL voltage -512 160 R0
WINDOW 123 0 0 Left 0
WINDOW 39 24 124 Left 2
SYMATTR SpiceLine Rser=.8
SYMATTR InstName V7
SYMATTR Value 15
SYMBOL voltage -512 32 R0
WINDOW 123 0 0 Left 0
WINDOW 39 24 124 Left 2
SYMATTR SpiceLine Rser=.8
SYMATTR InstName V8
SYMATTR Value 15
SYMBOL cap 320 656 R90
WINDOW 0 0 32 VBottom 2
WINDOW 3 32 32 VTop 2
SYMATTR InstName C6
SYMATTR Value 100nf
SYMBOL OpAmps\\LT1013 256 848 R0
SYMATTR InstName U10
SYMBOL OpAmps\\LT1013 720 864 R0
SYMATTR InstName U11
SYMBOL bv -336 880 R0
SYMATTR InstName B1
SYMATTR Value V=V(out)*2*V(cos)
SYMBOL res 320 1296 R90
WINDOW 0 0 56 VBottom 2
WINDOW 3 32 56 VTop 2
SYMATTR InstName R1
SYMATTR Value 100K
SYMBOL res 176 1408 R90
WINDOW 0 0 56 VBottom 2
WINDOW 3 32 56 VTop 2
SYMATTR InstName R2
SYMATTR Value 100K
SYMBOL res 176 1488 R0
SYMATTR InstName R3
SYMATTR Value 9990
SYMBOL res 368 1424 R0
SYMATTR InstName R4
SYMATTR Value 100K
SYMBOL cap 304 1184 R90
WINDOW 0 0 32 VBottom 2
WINDOW 3 32 32 VTop 2
SYMATTR InstName C1
SYMATTR Value 100nf
SYMBOL OpAmps\\LT1013 240 1376 R0
SYMATTR InstName U1
SYMBOL bv -352 1408 R0
SYMATTR InstName B2
SYMATTR Value V=V(out)*2*V(sin)
SYMBOL res 800 1312 R90
WINDOW 0 0 56 VBottom 2
WINDOW 3 32 56 VTop 2
SYMATTR InstName R10
SYMATTR Value 10K
SYMBOL res 656 1424 R90
WINDOW 0 0 56 VBottom 2
WINDOW 3 32 56 VTop 2
SYMATTR InstName R11
SYMATTR Value 10K
SYMBOL OpAmps\\LT1013 720 1392 R0
SYMATTR InstName U3
SYMBOL Misc\\signal -160 480 R0
WINDOW 3 24 104 Invisible 2
WINDOW 123 0 0 Left 0
WINDOW 39 0 0 Left 0
SYMATTR Value SINE(0 1 2K 0)
SYMATTR InstName V9
SYMBOL Misc\\signal -16 480 R0
WINDOW 3 24 104 Invisible 2
WINDOW 123 0 0 Left 0
WINDOW 39 0 0 Left 0
SYMATTR Value SINE(0 1 2K .000125)
SYMATTR InstName V10
TEXT -80 664 Left 2 !.tran 100ms
